
  -OEChem-03182014363D

  3  2  0     0  0  0  0  0  0999 V2000
    0.0611    0.3887    0.0589 O   0  0  0  0  0  0  0  0  0  0  0  0
    0.7238   -0.3116   -0.0382 H   1  0  0  0  0  0  0  0  0  0  0  0
   -0.7849   -0.0770   -0.0207 H   1  0  0  0  0  0  0  0  0  0  0  0
  1  2  1  0  0  0  0
  1  3  1  0  0  0  0
M  ISO  2   2   2   3   2
M  END
$$$$
[0.0, 0.0, 0.0]
