
JGcorina  11061817343D 1   1.00000     0.00000     0
CORINA 4.2.0 0026  27.09.2018
  6  5  0  0  0  0            999 V2000
    1.1449    2.0020    0.0019 F   0  0  0  0  0  0  0  0  0  0  0  0
   -0.0158    1.3107    0.0092 C   0  0  0  0  0  0  0  0  0  0  0  0
    0.0021   -0.0041    0.0020 C   0  0  0  0  0  0  0  0  0  0  0  0
    1.1811   -0.6636   -0.0128 F   0  0  0  0  0  0  0  0  0  0  0  0
   -0.9583    1.8379    0.0166 H   0  0  0  0  0  0  0  0  0  0  0  0
   -0.9258   -0.5567    0.0079 H   0  0  0  0  0  0  0  0  0  0  0  0
  1  2  1  0  0  0  0
  2  3  2  0  0  0  0
  2  5  1  0  0  0  0
  3  4  1  0  0  0  0
  3  6  1  0  0  0  0
M  END
$$$$

JGcorina  11061817343D 1   1.00000     0.00000     0
CORINA 4.2.0 0026  27.09.2018
  6  5  0  0  0  0            999 V2000
    1.1481    1.7672    0.0006 F   0  0  0  0  0  0  0  0  0  0  0  0
   -0.0126    1.0758    0.0080 C   0  0  0  0  0  0  0  0  0  0  0  0
   -1.1601    1.7177    0.0169 C   0  0  0  0  0  0  0  0  0  0  0  0
   -2.3208    1.0264    0.0186 F   0  0  0  0  0  0  0  0  0  0  0  0
    0.0021   -0.0041    0.0020 H   0  0  0  0  0  0  0  0  0  0  0  0
   -1.1748    2.7976    0.0228 H   0  0  0  0  0  0  0  0  0  0  0  0
  1  2  1  0  0  0  0
  2  3  2  0  0  0  0
  2  5  1  0  0  0  0
  3  4  1  0  0  0  0
  3  6  1  0  0  0  0
M  END
$$$$
